/*--------------------------------*- C++ -*----------------------------------*\
| =========                 |                                                 |
| \\      /  F ield         | OpenFOAM: The Open Source CFD Toolbox           |
|  \\    /   O peration     | Version:  v2012                                 |
|   \\  /    A nd           | Website:  www.openfoam.com                      |
|    \\/     M anipulation  |                                                 |
\*---------------------------------------------------------------------------*/
FoamFile
{
    version     2.0;
    format      ascii;
    class       extendedFeatureEdgeMesh;
    location    "constant/extendedFeatureEdgeMesh";
    object      geometry.extendedFeatureEdgeMesh;
}
// * * * * * * * * * * * * * * * * * * * * * * * * * * * * * * * * * * * * * //

// points

24
(
(3.8 -1.25 0)
(-4 -1.25 0)
(3.8 -1.25 2.2)
(-4 -1.25 2.2)
(1.25 1.1 2.2)
(1.25 1.1 0)
(-1.1 4.25 2.2)
(-1.1 4.25 0)
(-4 4.25 2.2)
(-4 4.25 0)
(1.85514 -1.25 0)
(1.85514 -1.25 2)
(1.05514 -1.25 0)
(1.05514 -1.25 2)
(2.67316 -0.211536 1.3)
(2.67316 -0.211536 0.9)
(2.23194 0.195073 1.3)
(2.23194 0.195073 0.9)
(-1.1 1.1 2.2)
(-1.1 1.1 0)
(-4 3.39423 0.9)
(-4 3.39423 1.3)
(-4 2.79423 1.3)
(-4 2.79423 0.9)
)

// edges

31
(
(10 0)
(1 12)
(0 2)
(3 1)
(2 3)
(12 10)
(4 2)
(0 5)
(5 4)
(18 4)
(5 19)
(6 18)
(7 6)
(19 7)
(8 6)
(9 8)
(7 9)
(3 8)
(9 1)
(19 18)
(11 10)
(12 13)
(13 11)
(15 14)
(14 16)
(17 15)
(16 17)
(20 21)
(22 23)
(21 22)
(23 20)
)

// concaveStart mixedStart nonFeatureStart
10 10 24
// internalStart flatStart openStart multipleStart
19 20 31 31
// normals

44
(
(0 -1 0)
(0 -1 0)
(0 0 -1)
(0 -1 0)
(0 -1 0)
(0 0 -1)
(0 -1 -0)
(0.677681 0.735356 -0)
(0 -1 0)
(-1 0 0)
(0 -1 0)
(0 -1 0)
(0 0 1)
(0 0 -1)
(0.677681 0.735356 0)
(0.677681 0.735356 0)
(0.677681 0.735356 2.89215e-07)
(0 0 1)
(0.677681 0.735356 -2.89215e-07)
(0.677681 0.735356 -9.59115e-07)
(0.677681 0.735356 -0)
(0.677681 0.735356 9.59115e-07)
(0.677681 0.735356 0)
(0.677681 0.735356 -0)
(-0 1 0)
(0 1 0)
(1 -0 0)
(-0 0 -1)
(0 0 1)
(1 0 -0)
(-0 1 0)
(0 0 -1)
(0 1 0)
(-1 0 0)
(-1 0 0)
(-1 0 -0)
(-1 -0 -0)
(-1 0 0)
(-1 0 0)
(-1 -0 -0)
(-1 -0 0)
(0 0 1)
(-1 0 0)
(-0 0 -1)
)

// normal volume types

44
(
0
0
0
0
0
0
0
0
0
0
0
0
0
0
0
0
0
0
0
0
0
0
0
0
0
0
0
0
0
0
0
0
0
0
0
0
0
0
0
0
0
0
0
0
)

// normalDirections

31
(
2(1 -1)
2(1 -1)
2(1 -1)
2(1 -1)
2(1 -1)
2(1 -1)
2(1 -1)
2(1 -1)
2(1 -1)
2(1 -1)
2(1 -1)
2(1 -1)
2(1 -1)
2(1 -1)
2(1 -1)
2(1 -1)
2(1 -1)
2(1 -1)
2(1 -1)
2(1 -1)
2(1 -1)
2(1 -1)
2(1 -1)
2(1 -1)
2(1 -1)
2(1 -1)
2(1 -1)
2(1 -1)
2(1 -1)
2(1 -1)
2(1 -1)
)

// edgeNormals

31
(
2(0 2)
2(3 5)
2(6 7)
2(8 9)
2(11 12)
2(4 13)
2(16 17)
2(18 2)
2(23 24)
2(24 17)
2(25 27)
2(26 28)
2(29 30)
2(29 31)
2(30 28)
2(32 33)
2(32 31)
2(40 41)
2(42 43)
2(25 26)
2(0 1)
2(3 4)
2(10 1)
2(14 15)
2(19 20)
2(21 15)
2(22 20)
2(34 35)
2(36 37)
2(38 37)
2(39 35)
)

// featurePointNormals

24
(
3(0 2 7)
3(3 5 9)
3(6 7 12)
3(8 9 12)
3(16 17 24)
3(18 2 24)
3(26 28 30)
3(29 30 31)
3(30 28 33)
3(32 33 31)
2(0 2)
1(0)
2(3 5)
1(3)
1(14)
1(14)
1(19)
1(21)
3(24 17 26)
3(25 27 29)
1(34)
1(34)
1(36)
1(36)
)

// featurePointEdges

24
(
3(2 7 0)
3(3 18 1)
3(4 6 2)
3(4 17 3)
3(8 9 6)
3(8 10 7)
3(12 14 11)
3(12 16 13)
3(15 17 14)
3(15 18 16)
3(20 5 0)
2(22 20)
3(21 5 1)
2(22 21)
2(24 23)
2(25 23)
2(26 24)
2(26 25)
3(19 11 9)
3(19 13 10)
2(30 27)
2(29 27)
2(29 28)
2(30 28)
)

// regionEdges

31
(
20
0
21
1
2
3
22
4
5
23
6
7
24
25
26
8
9
19
10
11
12
13
14
15
16
27
28
29
30
17
18
)



// ************************************************************************* //
