FoamFile
{
    version 2.0;
    format ascii;
    class volScalarField;    location "0.orig";
    object T;
}

dimensions [0 0 0 1 0 0 0];

internalField uniform 293.15;

boundaryField
{
    wall_0F_7
    {
    
        type fixedValue;
    
        value uniform 293.15;
    }
    wall_0F_10
    {
    
        type fixedValue;
    
        value uniform 293.15;
    }
    wall_0F_13
    {
    
        type fixedValue;
    
        value uniform 293.15;
    }
    window_0F_1
    {
    
        type fixedValue;
    
        value uniform 293.15;
    }
    wall_0F_14
    {
    
        type fixedValue;
    
        value uniform 293.15;
    }
    wall_0F_15
    {
    
        type fixedValue;
    
        value uniform 293.15;
    }
    door_0F_1
    {
    
        type fixedValue;
    
        value uniform 293.15;
    }
    wall_0F_16
    {
    
        type fixedValue;
    
        value uniform 293.15;
    }
    floor_0F
    {
    
        type fixedValue;
    
        value uniform 293.15;
    }
    ceil_0F
    {
    
        type fixedValue;
    
        value uniform 293.15;
    }
}
