FoamFile
{
    version 2.0;
    format ascii;
    class volVectorField;    location "0.orig";
    object U;
}

dimensions [0 1 -1 0 0 0 0];

internalField uniform (0.0 0.0 0.0);

boundaryField
{
    wall_0F_7
    {
    
        type noSlip;
    }
    wall_0F_10
    {
    
        type noSlip;
    }
    wall_0F_13
    {
    
        type noSlip;
    }
    window_0F_1
    {
    
        type pressureInletOutletVelocity;
    
        value $internalField;
    }
    wall_0F_14
    {
    
        type noSlip;
    }
    wall_0F_15
    {
    
        type noSlip;
    }
    door_0F_1
    {
    
        type inletOutlet;
    
        inletValue $internalField;
    
        value $internalField;
    
        phi phi;
    }
    wall_0F_16
    {
    
        type noSlip;
    }
    floor_0F
    {
    
        type noSlip;
    }
    ceil_0F
    {
    
        type noSlip;
    }
}
