/*--------------------------------*- C++ -*----------------------------------*\
| =========                 |                                                 |
| \\      /  F ield         | OpenFOAM: The Open Source CFD Toolbox           |
|  \\    /   O peration     | Version:  v2012                                 |
|   \\  /    A nd           | Website:  www.openfoam.com                      |
|    \\/     M anipulation  |                                                 |
\*---------------------------------------------------------------------------*/
FoamFile
{
    version     2.0;
    format      ascii;
    class       extendedFeatureEdgeMesh;
    location    "constant/extendedFeatureEdgeMesh";
    object      geometry.extendedFeatureEdgeMesh;
}
// * * * * * * * * * * * * * * * * * * * * * * * * * * * * * * * * * * * * * //

// points

20
(
(3.35 2.25 2.2)
(3.35 2.25 0)
(-2.55 2.25 2.2)
(-2.55 2.25 0)
(-0.05 -3.4 2.2)
(-2.55 -3.4 2.2)
(-2.55 -3.4 0)
(-0.05 -3.4 0)
(3.35 -0.45 0)
(3.35 -0.45 2.2)
(-2.55 -1.93585 0.9)
(-2.55 -1.93585 1.3)
(-2.55 -2.53585 1.3)
(-2.55 -2.53585 0.9)
(-0.05 -0.45 2.2)
(-0.05 -0.45 0)
(3.35 0.73268 0)
(3.35 0.73268 2)
(3.35 -0.06732 0)
(3.35 -0.06732 2)
)

// edges

27
(
(0 1)
(2 0)
(3 2)
(1 3)
(5 6)
(4 5)
(7 4)
(6 7)
(5 2)
(3 6)
(14 4)
(7 15)
(16 1)
(8 18)
(9 8)
(0 9)
(18 16)
(9 14)
(15 8)
(15 14)
(10 11)
(11 12)
(13 10)
(12 13)
(17 16)
(18 19)
(19 17)
)

// concaveStart mixedStart nonFeatureStart
10 10 20
// internalStart flatStart openStart multipleStart
19 20 27 27
// normals

36
(
(0 1 0)
(1 0 0)
(0 -0 1)
(0 1 0)
(-1 0 0)
(-0 0 -1)
(-0 -1 0)
(-1 -0 0)
(0 0 1)
(0 -1 0)
(1 0 0)
(0 -0 -1)
(-1 0 0)
(-1 0 -0)
(-1 -0 0)
(0 0 1)
(-1 0 0)
(-0 0 -1)
(-1 0 0)
(-1 0 0)
(-1 0 -0)
(-1 0 0)
(1 0 0)
(-0 -1 0)
(1 0 0)
(1 0 -0)
(0 0 -1)
(1 0 0)
(1 0 0)
(0 -0 -1)
(1 0 0)
(0 -1 0)
(1 0 -0)
(0 0 1)
(1 0 0)
(0 0 -1)
)

// normal volume types

36
(
0
0
0
0
0
0
0
0
0
0
0
0
0
0
0
0
0
0
0
0
0
0
0
0
0
0
0
0
0
0
0
0
0
0
0
0
)

// normalDirections

27
(
2(1 -1)
2(1 -1)
2(1 -1)
2(1 -1)
2(1 -1)
2(1 -1)
2(1 -1)
2(1 -1)
2(1 -1)
2(1 -1)
2(1 -1)
2(1 -1)
2(1 -1)
2(1 -1)
2(1 -1)
2(1 -1)
2(1 -1)
2(1 -1)
2(1 -1)
2(1 -1)
2(1 -1)
2(1 -1)
2(1 -1)
2(1 -1)
2(1 -1)
2(1 -1)
2(1 -1)
)

// edgeNormals

27
(
2(0 1)
2(0 2)
2(3 4)
2(3 5)
2(6 7)
2(6 8)
2(9 10)
2(9 11)
2(14 15)
2(16 17)
2(10 8)
2(22 11)
2(24 26)
2(27 29)
2(30 31)
2(32 33)
2(28 35)
2(23 33)
2(31 29)
2(22 23)
2(12 13)
2(18 19)
2(20 13)
2(21 19)
2(24 25)
2(27 28)
2(34 25)
)

// featurePointNormals

20
(
3(0 1 2)
3(0 1 5)
3(0 2 4)
3(3 4 5)
3(6 8 10)
3(6 7 8)
3(6 7 11)
3(9 10 11)
3(27 29 31)
3(30 31 33)
1(12)
1(12)
1(18)
1(20)
3(10 8 23)
3(22 11 31)
2(24 26)
1(24)
2(27 29)
1(27)
)

// featurePointEdges

20
(
3(0 15 1)
3(3 12 0)
3(2 8 1)
3(2 9 3)
3(6 10 5)
3(4 8 5)
3(7 9 4)
3(6 11 7)
3(14 18 13)
3(15 17 14)
2(20 22)
2(21 20)
2(23 21)
2(23 22)
3(19 17 10)
3(19 18 11)
3(24 16 12)
2(26 24)
3(25 16 13)
2(26 25)
)

// regionEdges

27
(
0
1
2
3
4
5
6
7
20
8
9
21
22
23
10
19
11
24
12
25
13
14
15
26
16
17
18
)



// ************************************************************************* //
